tests/fuzzer/corpus_json/24_columnar_21_random_019.json
{
  "version": "1.0",
  "type": "input",
  "is_batch": false,
  "attributes": {
    "node": [
      "id",
      "u_rated"
    ],
    "source": [
      "id",
      "node",
      "status",
      "u_ref",
      "u_ref_angle",
      "sk",
      "rx_ratio",
      "z01_ratio"
    ],
    "line": [
      "id",
      "from_node",
      "to_node",
      "from_status",
      "to_status",
      "r1",
      "x1",
      "c1",
      "tan1",
      "r0",
      "x0",
      "c0",
      "tan0",
      "i_n"
    ],
    "sym_load": [
      "id",
      "node",
      "status",
      "type",
      "p_specified",
      "q_specified"
    ],
    "shunt": [
      "id",
      "node",
      "status",
      "g1",
      "b1",
      "g0",
      "b0"
    ]
  },
  "data": {
    "node": [
      [
        0,
        230.0
      ],
      [
        1,
        230.0
      ],
      [
        2,
        230.0
      ],
      [
        3,
        230.0
      ],
      [
        4,
        230.0
      ],
      [
        5,
        230.0
      ],
      [
        6,
        230.0
      ],
      [
        7,
        230.0
      ],
      [
        8,
        230.0
      ],
      [
        9,
        230.0
      ],
      [
        10,
        230.0
      ],
      [
        11,
        230.0
      ]
    ],
    "source": [
      [
        12,
        0,
        1,
        1.0040932314406164,
        0.0,
        784932864.9515021,
        0.2557458512466301,
        1.0
      ]
    ],
    "line": [
      [
        13,
        0,
        1,
        1,
        1,
        4.984084685489495,
        1.4468247288728535,
        1.482597931846946e-07,
        0.0,
        0.3,
        0.3,
        1e-09,
        0.0,
        268.4677888199027
      ],
      [
        14,
        1,
        2,
        1,
        1,
        1.302185968006645,
        1.6368350747230536,
        2.6791084434471325e-07,
        0.0,
        0.3,
        0.3,
        1e-09,
        0.0,
        116.5674984869893
      ],
      [
        15,
        2,
        3,
        1,
        1,
        1.6274987122864064,
        1.5553253525071076,
        5.692400158763194e-07,
        0.0,
        0.3,
        0.3,
        1e-09,
        0.0,
        209.61462483073797
      ],
      [
        16,
        3,
        4,
        1,
        1,
        0.3539385989457505,
        1.0127601442445655,
        5.424425933927817e-07,
        0.0,
        0.3,
        0.3,
        1e-09,
        0.0,
        394.676195885492
      ],
      [
        17,
        4,
        5,
        1,
        1,
        3.667352872852296,
        4.015297669861147,
        4.144375921547606e-07,
        0.0,
        0.3,
        0.3,
        1e-09,
        0.0,
        108.36482981820626
      ],
      [
        18,
        5,
        6,
        1,
        1,
        3.6399744236163745,
        3.778315702557435,
        3.960633310698073e-07,
        0.0,
        0.3,
        0.3,
        1e-09,
        0.0,
        661.7064053514605
      ],
      [
        19,
        6,
        7,
        1,
        1,
        1.495253912014387,
        4.574467372234946,
        8.338068660983387e-07,
        0.0,
        0.3,
        0.3,
        1e-09,
        0.0,
        794.0433929912899
      ],
      [
        20,
        7,
        8,
        1,
        1,
        4.769575089454393,
        1.1642064815272697,
        5.452519325658608e-07,
        0.0,
        0.3,
        0.3,
        1e-09,
        0.0,
        734.0634649741698
      ],
      [
        21,
        8,
        9,
        1,
        1,
        4.007371187483012,
        1.9514005330023694,
        1.3854350249956825e-07,
        0.0,
        0.3,
        0.3,
        1e-09,
        0.0,
        630.0541379181279
      ],
      [
        22,
        9,
        10,
        1,
        1,
        0.5232092942005212,
        3.5267992860849713,
        6.954900599812741e-09,
        0.0,
        0.3,
        0.3,
        1e-09,
        0.0,
        459.954863763231
      ],
      [
        23,
        10,
        11,
        1,
        1,
        2.3987723363240345,
        0.5989936932986578,
        4.801934199376975e-07,
        0.0,
        0.3,
        0.3,
        1e-09,
        0.0,
        505.06566546158433
      ]
    ],
    "sym_load": [
      [
        24,
        1,
        1,
        2,
        73214.03351947584,
        7810.694426725335
      ],
      [
        25,
        2,
        1,
        0,
        -6804.489528221442,
        -963.9696607503065
      ],
      [
        26,
        6,
        1,
        1,
        -19315.336207873363,
        4707.991953349943
      ],
      [
        27,
        7,
        1,
        1,
        -38337.60816250733,
        5310.041613180441
      ],
      [
        28,
        8,
        1,
        1,
        37494.01862176065,
        5040.938916892066
      ],
      [
        29,
        9,
        1,
        0,
        -6256.438038056527,
        -975.3752266690026
      ],
      [
        30,
        11,
        1,
        2,
        -45040.02470467108,
        -8297.898601536052
      ]
    ],
    "shunt": [
      [
        31,
        0,
        1,
        2.85840599857917e-05,
        -6.5920072322444195e-06,
        0.0001,
        0.0001
      ]
    ]
  }
}
